Version 4
SHEET 1 5945676 13421556
WIRE 3056 -32 1936 -32
WIRE 2176 64 1984 64
WIRE 2304 64 2176 64
WIRE 2432 64 2304 64
WIRE 2560 64 2512 64
WIRE 2576 64 2560 64
WIRE 2688 64 2640 64
WIRE 2784 64 2768 64
WIRE 2880 64 2784 64
WIRE 3024 64 2944 64
WIRE 3056 64 3056 -32
WIRE 3056 64 3024 64
WIRE 2304 80 2304 64
WIRE 1984 112 1984 64
WIRE 3056 144 3056 64
WIRE 2304 192 2304 144
WIRE 2784 192 2784 64
WIRE 1984 240 1984 192
WIRE 1936 288 1936 -32
WIRE 2304 288 2304 272
WIRE 2176 336 2176 64
WIRE 2560 352 2560 64
WIRE 1792 400 1712 400
WIRE 1936 400 1936 368
WIRE 1936 400 1872 400
WIRE 2016 400 1936 400
WIRE 2352 432 2336 432
WIRE 2448 432 2432 432
WIRE 2512 432 2448 432
WIRE 2016 464 1648 464
WIRE 2448 512 2448 432
WIRE 1808 528 1760 528
WIRE 2016 528 1888 528
WIRE 1760 592 1760 528
WIRE 2016 592 1760 592
WIRE 1760 624 1760 592
WIRE 2176 672 2176 656
WIRE 2448 672 2448 592
WIRE 2448 672 2176 672
WIRE 2560 672 2560 448
WIRE 2560 672 2448 672
WIRE 2784 672 2784 272
WIRE 2784 672 2560 672
WIRE 3056 672 3056 208
WIRE 3056 672 2784 672
WIRE 1760 704 1760 688
WIRE 2176 704 2176 672
FLAG 2176 704 0
FLAG 1984 240 0
FLAG 2304 288 0
FLAG 3024 64 Vout
FLAG 1712 400 0
FLAG 1760 704 0
SYMBOL PowerProducts\\LT1243 2176 496 R0
SYMATTR InstName U1
SYMBOL cap 2288 80 R0
SYMATTR InstName Cin
SYMATTR Value 10µ
SYMBOL cap 2640 48 R90
WINDOW 0 0 32 VBottom 2
WINDOW 3 32 32 VTop 2
SYMATTR InstName Cs
SYMATTR Value 100µ
SYMBOL ind2 2416 80 R270
WINDOW 0 32 56 VTop 2
WINDOW 3 4 56 VBottom 2
SYMATTR InstName L1
SYMATTR Value 10µ
SYMATTR Type ind
SYMBOL ind2 2800 288 R180
WINDOW 0 36 80 Left 2
WINDOW 3 36 40 Left 2
SYMATTR InstName L2
SYMATTR Value 10µ
SYMATTR Type ind
SYMBOL cap 3040 144 R0
SYMATTR InstName Cout
SYMATTR Value 10µ
SYMBOL voltage 1984 96 R0
WINDOW 123 0 0 Left 0
WINDOW 39 0 0 Left 0
SYMATTR InstName V1
SYMATTR Value 8.4
SYMBOL res 2288 176 R0
SYMATTR InstName Rcinesr
SYMATTR Value 0.01
SYMBOL schottky 2880 80 R270
WINDOW 0 32 32 VTop 2
WINDOW 3 0 32 VBottom 2
SYMATTR InstName D1
SYMATTR Value RBR5L60A
SYMATTR Description Diode
SYMATTR Type diode
SYMBOL res 2784 48 R90
WINDOW 0 0 56 VBottom 2
WINDOW 3 32 56 VTop 2
SYMATTR InstName Rcsesr
SYMATTR Value 25m
SYMBOL nmos 2512 352 R0
SYMATTR InstName M1
SYMATTR Value BSC042NE7NS3
SYMBOL res 2432 496 R0
SYMATTR InstName R1
SYMATTR Value 10k
SYMBOL res 2448 416 R90
WINDOW 0 0 56 VBottom 2
WINDOW 3 32 56 VTop 2
SYMATTR InstName R2
SYMATTR Value 1
SYMBOL res 1920 272 R0
SYMATTR InstName R3
SYMATTR Value 80k
SYMBOL res 1888 384 R90
WINDOW 0 0 56 VBottom 2
WINDOW 3 32 56 VTop 2
SYMATTR InstName R4
SYMATTR Value 10k
SYMBOL res 1904 512 R90
WINDOW 0 0 56 VBottom 2
WINDOW 3 32 56 VTop 2
SYMATTR InstName R5
SYMATTR Value 1.2k
SYMBOL cap 1744 624 R0
SYMATTR InstName C1
SYMATTR Value 3.9n
TEXT 1928 800 Left 2 ;Note:\n  If the simulation model is not found please update with the "Sync Release" command from the "Tools" menu.\n  It remains the customer's responsibility to verify proper and reliable operation in the actual application.\n  Component substitution and printed circuit board layout may significantly affect circuit performance or reliability.\n  Contact your local sales representative for assistance. This circuit is distributed to customers only for use with LTC parts.\n  Copyright © 2012 Linear Technology Inc. All rights reserved.
TEXT 2424 0 Left 2 !K1 L1 L2 1
TEXT 1646 960 Left 2 !.tran 10m
